EV_data/13Bus/IEEE13Nodeckt_VLN.Txt

SYMMETRICAL COMPONENT VOLTAGES BY BUS (for 3-phase buses)

Bus        Mag:   V1 (kV)    p.u.     V2 (kV)   %V2/V1    V0 (kV)    %V0/V1

sourcebus      66.4          1  0.0003533  0.0005321 0.0003085 0.0004646
650           2.402          1  1.688E-005  0.0007028 1.529E-005 0.0006366
rg60          2.402          1  2.329E-005  0.0009696 2.197E-005 0.0009148
633           2.425       1.01   0.006054     0.2497   0.01012    0.4174
634          0.2798       1.01  0.0006985     0.2497  0.001168    0.4174
671           2.447      1.019    0.01208     0.4938   0.02022    0.8261
645           2.416      1.006          0          0         0         0
646           2.416      1.006          0          0         0         0
692           2.447      1.019    0.01208     0.4938   0.02022    0.8261
675           2.451       1.02    0.01237     0.5047   0.02028    0.8275
611           2.484      1.034          0          0         0         0
652           2.436      1.014          0          0         0         0
670           2.432      1.013   0.008065     0.3316   0.01349    0.5546
632           2.425       1.01   0.006054     0.2497   0.01012    0.4174
680           2.447      1.019    0.01208     0.4938   0.02022    0.8261
684           2.436      1.014          0          0         0         0
